*SPEF "ieee 1481-1999"
*DESIGN "wrapped_function_generator"
*DATE "11:11:11 Fri 11 11, 1111"
*VENDOR "OpenRCX"
*PROGRAM "Parallel Extraction"
*VERSION "1.0"
*DESIGN_FLOW "NAME_SCOPE LOCAL" "PIN_CAP NONE"
*DIVIDER /
*DELIMITER :
*BUS_DELIMITER []
*T_UNIT 1 NS
*C_UNIT 1 PF
*R_UNIT 1 OHM
*L_UNIT 1 HENRY

*NAME_MAP
*1 active
*2 io_in[0]
*3 io_in[10]
*4 io_in[11]
*5 io_in[12]
*6 io_in[13]
*7 io_in[14]
*8 io_in[15]
*9 io_in[16]
*10 io_in[17]
*11 io_in[18]
*12 io_in[19]
*13 io_in[1]
*14 io_in[20]
*15 io_in[21]
*16 io_in[22]
*17 io_in[23]
*18 io_in[24]
*19 io_in[25]
*20 io_in[26]
*21 io_in[27]
*22 io_in[28]
*23 io_in[29]
*24 io_in[2]
*25 io_in[30]
*26 io_in[31]
*27 io_in[32]
*28 io_in[33]
*29 io_in[34]
*30 io_in[35]
*31 io_in[36]
*32 io_in[37]
*33 io_in[3]
*34 io_in[4]
*35 io_in[5]
*36 io_in[6]
*37 io_in[7]
*38 io_in[8]
*39 io_in[9]
*40 io_oeb[0]
*41 io_oeb[10]
*42 io_oeb[11]
*43 io_oeb[12]
*44 io_oeb[13]
*45 io_oeb[14]
*46 io_oeb[15]
*47 io_oeb[16]
*48 io_oeb[17]
*49 io_oeb[18]
*50 io_oeb[19]
*51 io_oeb[1]
*52 io_oeb[20]
*53 io_oeb[21]
*54 io_oeb[22]
*55 io_oeb[23]
*56 io_oeb[24]
*57 io_oeb[25]
*58 io_oeb[26]
*59 io_oeb[27]
*60 io_oeb[28]
*61 io_oeb[29]
*62 io_oeb[2]
*63 io_oeb[30]
*64 io_oeb[31]
*65 io_oeb[32]
*66 io_oeb[33]
*67 io_oeb[34]
*68 io_oeb[35]
*69 io_oeb[36]
*70 io_oeb[37]
*71 io_oeb[3]
*72 io_oeb[4]
*73 io_oeb[5]
*74 io_oeb[6]
*75 io_oeb[7]
*76 io_oeb[8]
*77 io_oeb[9]
*78 io_out[0]
*79 io_out[10]
*80 io_out[11]
*81 io_out[12]
*82 io_out[13]
*83 io_out[14]
*84 io_out[15]
*85 io_out[16]
*86 io_out[17]
*87 io_out[18]
*88 io_out[19]
*89 io_out[1]
*90 io_out[20]
*91 io_out[21]
*92 io_out[22]
*93 io_out[23]
*94 io_out[24]
*95 io_out[25]
*96 io_out[26]
*97 io_out[27]
*98 io_out[28]
*99 io_out[29]
*100 io_out[2]
*101 io_out[30]
*102 io_out[31]
*103 io_out[32]
*104 io_out[33]
*105 io_out[34]
*106 io_out[35]
*107 io_out[36]
*108 io_out[37]
*109 io_out[3]
*110 io_out[4]
*111 io_out[5]
*112 io_out[6]
*113 io_out[7]
*114 io_out[8]
*115 io_out[9]
*116 rambus_wb_ack_i
*117 rambus_wb_adr_o[0]
*118 rambus_wb_adr_o[1]
*119 rambus_wb_adr_o[2]
*120 rambus_wb_adr_o[3]
*121 rambus_wb_adr_o[4]
*122 rambus_wb_adr_o[5]
*123 rambus_wb_adr_o[6]
*124 rambus_wb_adr_o[7]
*125 rambus_wb_adr_o[8]
*126 rambus_wb_adr_o[9]
*127 rambus_wb_clk_o
*128 rambus_wb_cyc_o
*129 rambus_wb_dat_i[0]
*130 rambus_wb_dat_i[10]
*131 rambus_wb_dat_i[11]
*132 rambus_wb_dat_i[12]
*133 rambus_wb_dat_i[13]
*134 rambus_wb_dat_i[14]
*135 rambus_wb_dat_i[15]
*136 rambus_wb_dat_i[16]
*137 rambus_wb_dat_i[17]
*138 rambus_wb_dat_i[18]
*139 rambus_wb_dat_i[19]
*140 rambus_wb_dat_i[1]
*141 rambus_wb_dat_i[20]
*142 rambus_wb_dat_i[21]
*143 rambus_wb_dat_i[22]
*144 rambus_wb_dat_i[23]
*145 rambus_wb_dat_i[24]
*146 rambus_wb_dat_i[25]
*147 rambus_wb_dat_i[26]
*148 rambus_wb_dat_i[27]
*149 rambus_wb_dat_i[28]
*150 rambus_wb_dat_i[29]
*151 rambus_wb_dat_i[2]
*152 rambus_wb_dat_i[30]
*153 rambus_wb_dat_i[31]
*154 rambus_wb_dat_i[3]
*155 rambus_wb_dat_i[4]
*156 rambus_wb_dat_i[5]
*157 rambus_wb_dat_i[6]
*158 rambus_wb_dat_i[7]
*159 rambus_wb_dat_i[8]
*160 rambus_wb_dat_i[9]
*161 rambus_wb_dat_o[0]
*162 rambus_wb_dat_o[10]
*163 rambus_wb_dat_o[11]
*164 rambus_wb_dat_o[12]
*165 rambus_wb_dat_o[13]
*166 rambus_wb_dat_o[14]
*167 rambus_wb_dat_o[15]
*168 rambus_wb_dat_o[16]
*169 rambus_wb_dat_o[17]
*170 rambus_wb_dat_o[18]
*171 rambus_wb_dat_o[19]
*172 rambus_wb_dat_o[1]
*173 rambus_wb_dat_o[20]
*174 rambus_wb_dat_o[21]
*175 rambus_wb_dat_o[22]
*176 rambus_wb_dat_o[23]
*177 rambus_wb_dat_o[24]
*178 rambus_wb_dat_o[25]
*179 rambus_wb_dat_o[26]
*180 rambus_wb_dat_o[27]
*181 rambus_wb_dat_o[28]
*182 rambus_wb_dat_o[29]
*183 rambus_wb_dat_o[2]
*184 rambus_wb_dat_o[30]
*185 rambus_wb_dat_o[31]
*186 rambus_wb_dat_o[3]
*187 rambus_wb_dat_o[4]
*188 rambus_wb_dat_o[5]
*189 rambus_wb_dat_o[6]
*190 rambus_wb_dat_o[7]
*191 rambus_wb_dat_o[8]
*192 rambus_wb_dat_o[9]
*193 rambus_wb_rst_o
*194 rambus_wb_sel_o[0]
*195 rambus_wb_sel_o[1]
*196 rambus_wb_sel_o[2]
*197 rambus_wb_sel_o[3]
*198 rambus_wb_stb_o
*199 rambus_wb_we_o
*202 wb_clk_i
*203 wb_rst_i
*204 wbs_ack_o
*205 wbs_adr_i[0]
*206 wbs_adr_i[10]
*207 wbs_adr_i[11]
*208 wbs_adr_i[12]
*209 wbs_adr_i[13]
*210 wbs_adr_i[14]
*211 wbs_adr_i[15]
*212 wbs_adr_i[16]
*213 wbs_adr_i[17]
*214 wbs_adr_i[18]
*215 wbs_adr_i[19]
*216 wbs_adr_i[1]
*217 wbs_adr_i[20]
*218 wbs_adr_i[21]
*219 wbs_adr_i[22]
*220 wbs_adr_i[23]
*221 wbs_adr_i[24]
*222 wbs_adr_i[25]
*223 wbs_adr_i[26]
*224 wbs_adr_i[27]
*225 wbs_adr_i[28]
*226 wbs_adr_i[29]
*227 wbs_adr_i[2]
*228 wbs_adr_i[30]
*229 wbs_adr_i[31]
*230 wbs_adr_i[3]
*231 wbs_adr_i[4]
*232 wbs_adr_i[5]
*233 wbs_adr_i[6]
*234 wbs_adr_i[7]
*235 wbs_adr_i[8]
*236 wbs_adr_i[9]
*237 wbs_cyc_i
*238 wbs_dat_i[0]
*239 wbs_dat_i[10]
*240 wbs_dat_i[11]
*241 wbs_dat_i[12]
*242 wbs_dat_i[13]
*243 wbs_dat_i[14]
*244 wbs_dat_i[15]
*245 wbs_dat_i[16]
*246 wbs_dat_i[17]
*247 wbs_dat_i[18]
*248 wbs_dat_i[19]
*249 wbs_dat_i[1]
*250 wbs_dat_i[20]
*251 wbs_dat_i[21]
*252 wbs_dat_i[22]
*253 wbs_dat_i[23]
*254 wbs_dat_i[24]
*255 wbs_dat_i[25]
*256 wbs_dat_i[26]
*257 wbs_dat_i[27]
*258 wbs_dat_i[28]
*259 wbs_dat_i[29]
*260 wbs_dat_i[2]
*261 wbs_dat_i[30]
*262 wbs_dat_i[31]
*263 wbs_dat_i[3]
*264 wbs_dat_i[4]
*265 wbs_dat_i[5]
*266 wbs_dat_i[6]
*267 wbs_dat_i[7]
*268 wbs_dat_i[8]
*269 wbs_dat_i[9]
*270 wbs_dat_o[0]
*271 wbs_dat_o[10]
*272 wbs_dat_o[11]
*273 wbs_dat_o[12]
*274 wbs_dat_o[13]
*275 wbs_dat_o[14]
*276 wbs_dat_o[15]
*277 wbs_dat_o[16]
*278 wbs_dat_o[17]
*279 wbs_dat_o[18]
*280 wbs_dat_o[19]
*281 wbs_dat_o[1]
*282 wbs_dat_o[20]
*283 wbs_dat_o[21]
*284 wbs_dat_o[22]
*285 wbs_dat_o[23]
*286 wbs_dat_o[24]
*287 wbs_dat_o[25]
*288 wbs_dat_o[26]
*289 wbs_dat_o[27]
*290 wbs_dat_o[28]
*291 wbs_dat_o[29]
*292 wbs_dat_o[2]
*293 wbs_dat_o[30]
*294 wbs_dat_o[31]
*295 wbs_dat_o[3]
*296 wbs_dat_o[4]
*297 wbs_dat_o[5]
*298 wbs_dat_o[6]
*299 wbs_dat_o[7]
*300 wbs_dat_o[8]
*301 wbs_dat_o[9]
*302 wbs_sel_i[0]
*303 wbs_sel_i[1]
*304 wbs_sel_i[2]
*305 wbs_sel_i[3]
*306 wbs_stb_i
*307 wbs_we_i
*308 _0000_
*309 _0001_
*310 _0002_
*311 _0003_
*312 _0004_
*313 _0005_
*314 _0006_
*315 _0007_
*316 _0008_
*317 _0009_
*318 _0010_
*319 _0011_
*320 _0012_
*321 _0013_
*322 _0014_
*323 _0015_
*324 _0016_
*325 _0017_
*326 _0018_
*327 _0019_
*328 _0020_
*329 _0021_
*330 _0022_
*331 _0023_
*332 _0024_
*333 _0025_
*334 _0026_
*335 _0027_
*336 _0028_
*337 _0029_
*338 _0030_
*339 _0031_
*340 _0032_
*341 _0033_
*342 _0034_
*343 _0035_
*344 _0036_
*345 _0037_
*346 _0038_
*347 _0039_
*348 _0040_
*349 _0041_
*350 _0042_
*351 _0043_
*352 _0044_
*353 _0045_
*354 _0046_
*355 _0047_
*356 _0048_
*357 _0049_
*358 _0050_
*359 _0051_
*360 _0052_
*361 _0053_
*362 _0054_
*363 _0055_
*364 _0056_
*365 _0057_
*366 _0058_
*367 _0059_
*368 _0060_
*369 _0061_
*370 _0062_
*371 _0063_
*372 _0064_
*373 _0065_
*374 _0066_
*375 _0067_
*376 _0068_
*377 _0069_
*378 _0070_
*379 _0071_
*380 _0072_
*381 _0073_
*382 _0074_
*383 _0075_
*384 _0076_
*385 _0077_
*386 _0078_
*387 _0079_
*388 _0080_
*389 _0081_
*390 _0082_
*391 _0083_
*392 _0084_
*393 _0085_
*394 _0086_
*395 _0087_
*396 _0088_
*397 _0089_
*398 _0090_
*399 _0091_
*400 _0092_
*401 _0093_
*402 _0094_
*403 _0095_
*404 _0096_
*405 _0097_
*406 _0098_
*407 _0099_
*408 _0100_
*409 _0101_
*410 _0102_
*411 _0103_
*412 _0104_
*413 _0105_
*414 _0106_
*415 _0107_
*416 _0108_
*417 _0109_
*418 _0110_
*419 _0111_
*420 _0112_
*421 _0113_
*422 _0114_
*423 _0115_
*424 _0116_
*425 _0117_
*426 _0118_
*427 _0119_
*428 _0120_
*429 _0121_
*430 _0122_
*431 _0123_
*432 _0124_
*433 _0125_
*434 _0126_
*435 _0127_
*436 _0128_
*437 _0129_
*438 _0130_
*439 _0131_
*440 _0132_
*441 _0133_
*442 _0134_
*443 _0135_
*444 _0136_
*445 _0137_
*446 _0138_
*447 _0139_
*448 _0140_
*449 _0141_
*450 _0142_
*451 _0143_
*452 _0144_
*453 _0145_
*454 _0146_
*455 _0147_
*456 _0148_
*457 _0149_
*458 _0150_
*459 _0151_
*460 _0152_
*461 _0153_
*462 _0154_
*463 _0155_
*464 _0156_
*465 _0157_
*466 _0158_
*467 _0159_
*468 _0160_
*469 _0161_
*470 _0162_
*471 _0163_
*472 _0164_
*473 _0165_
*474 _0166_
*475 _0167_
*476 _0168_
*477 _0169_
*478 _0170_
*479 _0171_
*480 _0172_
*481 _0173_
*482 _0174_
*483 _0175_
*484 _0176_
*485 _0177_
*486 _0178_
*487 _0179_
*488 _0180_
*489 _0181_
*490 _0182_
*491 _0183_
*492 _0184_
*493 _0185_
*494 _0186_
*495 _0187_
*496 _0188_
*497 _0189_
*498 _0190_
*499 _0191_
*500 _0192_
*501 _0193_
*502 _0194_
*503 _0195_
*504 _0196_
*505 _0197_
*506 _0198_
*507 _0199_
*508 _0200_
*509 _0201_
*510 _0202_
*511 _0203_
*512 _0204_
*513 _0205_
*514 _0206_
*515 _0207_
*516 _0208_
*517 _0209_
*518 _0210_
*519 _0211_
*520 _0212_
*521 _0213_
*522 _0214_
*523 _0215_
*524 _0216_
*525 _0217_
*526 _0218_
*527 _0219_
*528 _0220_
*529 _0221_
*530 _0222_
*531 _0223_
*532 _0224_
*533 _0225_
*534 _0226_
*535 _0227_
*536 _0228_
*537 _0229_
*538 _0230_
*539 _0231_
*540 _0232_
*541 _0233_
*542 _0234_
*543 _0235_
*544 _0236_
*545 _0237_
*546 _0238_
*547 _0239_
*548 _0240_
*549 _0241_
*550 _0242_
*551 _0243_
*552 _0244_
*553 _0245_
*554 _0246_
*555 _0247_
*556 _0248_
*557 _0249_
*558 _0250_
*559 _0251_
*560 _0252_
*561 _0253_
*562 _0254_
*563 _0255_
*564 _0256_
*565 _0257_
*566 _0258_
*567 _0259_
*568 _0260_
*569 _0261_
*570 _0262_
*571 _0263_
*572 _0264_
*573 _0265_
*574 _0266_
*575 _0267_
*576 _0268_
*577 _0269_
*578 _0270_
*579 _0271_
*580 _0272_
*581 _0273_
*582 _0274_
*583 _0275_
*584 _0276_
*585 _0277_
*586 _0278_
*587 _0279_
*588 _0280_
*589 _0281_
*590 _0282_
*591 _0283_
*592 _0284_
*593 _0285_
*594 _0286_
*595 _0287_
*596 _0288_
*597 _0289_
*598 _0290_
*599 _0291_
*600 _0292_
*601 _0293_
*602 _0294_
*603 _0295_
*604 _0296_
*605 _0297_
*606 _0298_
*607 _0299_
*608 _0300_
*609 _0301_
*610 _0302_
*611 _0303_
*612 _0304_
*613 _0305_
*614 _0306_
*615 _0307_
*616 _0308_
*617 _0309_
*618 _0310_
*619 _0311_
*620 _0312_
*621 _0313_
*622 _0314_
*623 _0315_
*624 _0316_
*625 _0317_
*626 _0318_
*627 _0319_
*628 _0320_
*629 _0321_
*630 _0322_
*631 _0323_
*632 _0324_
*633 _0325_
*634 _0326_
*635 _0327_
*636 _0328_
*637 _0329_
*638 _0330_
*639 _0331_
*640 _0332_
*641 _0333_
*642 _0334_
*643 _0335_
*644 _0336_
*645 _0337_
*646 _0338_
*647 _0339_
*648 _0340_
*649 _0341_
*650 _0342_
*651 _0343_
*652 _0344_
*653 _0345_
*654 _0346_
*655 _0347_
*656 _0348_
*657 _0349_
*658 _0350_
*659 _0351_
*660 _0352_
*661 _0353_
*662 _0354_
*663 _0355_
*664 _0356_
*665 _0357_
*666 _0358_
*667 _0359_
*668 _0360_
*669 _0361_
*670 _0362_
*671 _0363_
*672 _0364_
*673 _0365_
*674 _0366_
*675 _0367_
*676 _0368_
*677 _0369_
*678 _0370_
*679 _0371_
*680 _0372_
*681 _0373_
*682 _0374_
*683 _0375_
*684 _0376_
*685 _0377_
*686 _0378_
*687 _0379_
*688 _0380_
*689 _0381_
*690 _0382_
*691 _0383_
*692 _0384_
*693 _0385_
*694 _0386_
*695 _0387_
*696 _0388_
*697 _0389_
*698 _0390_
*699 _0391_
*700 _0392_
*701 _0393_
*702 _0394_
*703 _0395_
*704 _0396_
*705 _0397_
*706 _0398_
*707 _0399_
*708 _0400_
*709 _0401_
*710 _0402_
*711 _0403_
*712 _0404_
*713 _0405_
*714 _0406_
*715 _0407_
*716 _0408_
*717 _0409_
*718 _0410_
*719 _0411_
*720 _0412_
*721 _0413_
*722 _0414_
*723 _0415_
*724 _0416_
*725 _0417_
*726 _0418_
*727 _0419_
*728 _0420_
*729 _0421_
*730 _0422_
*731 _0423_
*732 _0424_
*733 _0425_
*734 _0426_
*735 _0427_
*736 _0428_
*737 _0429_
*738 _0430_
*739 _0431_
*740 _0432_
*741 _0433_
*742 _0434_
*743 _0435_
*744 _0436_
*745 _0437_
*746 _0438_
*747 _0439_
*748 _0440_
*749 _0441_
*750 _0442_
*751 _0443_
*752 _0444_
*753 _0445_
*754 _0446_
*755 _0447_
*756 _0448_
*757 _0449_
*758 _0450_
*759 _0451_
*760 _0452_
*761 _0453_
*762 _0454_
*763 _0455_
*764 _0456_
*765 _0457_
*766 _0458_
*767 _0459_
*768 _0460_
*769 _0461_
*770 _0462_
*771 _0463_
*772 _0464_
*773 _0465_
*774 _0466_
*775 _0467_
*776 _0468_
*777 _0469_
*778 _0470_
*779 _0471_
*780 _0472_
*781 _0473_
*782 _0474_
*783 _0475_
*784 _0476_
*785 _0477_
*786 _0478_
*787 _0479_
*788 _0480_
*789 _0481_
*790 _0482_
*791 _0483_
*792 _0484_
*793 _0485_
*794 _0486_
*795 _0487_
*796 _0488_
*797 _0489_
*798 _0490_
*799 _0491_
*800 _0492_
*801 _0493_
*802 _0494_
*803 _0495_
*804 _0496_
*805 _0497_
*806 _0498_
*807 _0499_
*808 _0500_
*809 _0501_
*810 _0502_
*811 _0503_
*812 _0504_
*813 _0505_
*814 _0506_
*815 _0507_
*816 _0508_
*817 _0509_
*818 _0510_
*819 _0511_
*820 _0512_
*821 _0513_
*822 _0514_
*823 _0515_
*824 _0516_
*825 _0517_
*826 _0518_
*827 _0519_
*828 _0520_
*829 _0521_
*830 _0522_
*831 _0523_
*832 _0524_
*833 _0525_
*834 _0526_
*835 _0527_
*836 _0528_
*837 _0529_
*838 _0530_
*839 _0531_
*840 _0532_
*841 _0533_
*842 _0534_
*843 _0535_
*844 _0536_
*845 _0537_
*846 _0538_
*847 _0539_
*848 _0540_
*849 _0541_
*850 _0542_
*851 _0543_
*852 _0544_
*853 _0545_
*854 _0546_
*855 _0547_
*856 _0548_
*857 _0549_
*858 _0550_
*859 _0551_
*860 _0552_
*861 _0553_
*862 _0554_
*863 _0555_
*864 _0556_
*865 _0557_
*866 _0558_
*867 _0559_
*868 _0560_
*869 _0561_
*870 _0562_
*871 _0563_
*872 _0564_
*873 _0565_
*874 _0566_
*875 _0567_
*876 _0568_
*877 _0569_
*878 _0570_
*879 _0571_
*880 _0572_
*881 _0573_
*882 _0574_
*883 _0575_
*884 _0576_
*885 _0577_
*886 _0578_
*887 _0579_
*888 _0580_
*889 _0581_
*890 _0582_
*891 _0583_
*892 _0584_
*893 _0585_
*894 _0586_
*895 _0587_
*896 _0588_
*897 _0589_
*898 _0590_
*899 _0591_
*900 _0592_
*901 _0593_
*902 _0594_
*903 _0595_
*904 _0596_
*905 _0597_
*906 _0598_
*907 _0599_
*908 _0600_
*909 _0601_
*910 _0602_
*911 _0603_
*912 _0604_
*913 _0605_
*914 _0606_
*915 _0607_
*916 _0608_
*917 _0609_
*918 _0610_
*919 _0611_
*920 _0612_
*921 _0613_
*922 _0614_
*923 _0615_
*924 _0616_
*925 _0617_
*926 _0618_
*927 _0619_
*928 _0620_
*929 _0621_
*930 _0622_
*931 _0623_
*932 _0624_
*933 _0625_
*934 _0626_
*935 _0627_
*936 _0628_
*937 _0629_
*938 _0630_
*939 _0631_
*940 _0632_
*941 _0633_
*942 _0634_
*943 _0635_
*944 _0636_
*945 _0637_
*946 _0638_
*947 _0639_
*948 _0640_
*949 _0641_
*950 _0642_
*951 _0643_
*952 _0644_
*953 _0645_
*954 _0646_
*955 _0647_
*956 _0648_
*957 _0649_
*958 _0650_
*959 _0651_
*960 _0652_
*961 _0653_
*962 _0654_
*963 _0655_
*964 _0656_
*965 _0657_
*966 _0658_
*967 _0659_
*968 _0660_
*969 _0661_
*970 _0662_
*971 _0663_
*972 _0664_
*973 _0665_
*974 _0666_
*975 _0667_
*976 _0668_
*977 _0669_
*978 _0670_
*979 _0671_
*980 _0672_
*981 _0673_
*982 _0674_
*983 _0675_
*984 _0676_
*985 _0677_
*986 _0678_
*987 _0679_
*988 _0680_
*989 _0681_
*990 _0682_
*991 _0683_
*992 _0684_
*993 _0685_
*994 _0686_
*995 _0687_
*996 _0688_
*997 _0689_
*998 _0690_
*999 _0691_
*1000 _0692_
*1001 _0693_
*1002 _0694_
*1003 _0695_
*1004 _0696_
*1005 _0697_
*1006 _0698_
*1007 _0699_
*1008 _0700_
*1009 _0701_
*1010 _0702_
*1011 _0703_
*1012 _0704_
*1013 _0705_
*1014 _0706_
*1015 _0707_
*1016 _0708_
*1017 _0709_
*1018 _0710_
*1019 _0711_
*1020 _0712_
*1021 _0713_
*1022 _0714_
*1023 _0715_
*1024 _0716_
*1025 _0717_
*1026 _0718_
*1027 _0719_
*1028 _0720_
*1029 _0721_
*1030 _0722_
*1031 _0723_
*1032 _0724_
*1033 _0725_
*1034 _0726_
*1035 _0727_
*1036 _0728_
*1037 _0729_
*1038 _0730_
*1039 _0731_
*1040 _0732_
*1041 _0733_
*1042 _0734_
*1043 _0735_
*1044 _0736_
*1045 _0737_
*1046 _0738_
*1047 clknet_0_wb_clk_i
*1048 clknet_1_0_0_wb_clk_i
*1049 clknet_1_1_0_wb_clk_i
*1050 clknet_2_0_0_wb_clk_i
*1051 clknet_2_1_0_wb_clk_i
*1052 clknet_2_2_0_wb_clk_i
*1053 clknet_2_3_0_wb_clk_i
*1054 clknet_3_0_0_wb_clk_i
*1055 clknet_3_1_0_wb_clk_i
*1056 clknet_3_2_0_wb_clk_i
*1057 clknet_3_3_0_wb_clk_i
*1058 clknet_3_4_0_wb_clk_i
*1059 clknet_3_5_0_wb_clk_i
*1060 clknet_3_6_0_wb_clk_i
*1061 clknet_3_7_0_wb_clk_i
*1062 clknet_4_0_0_wb_clk_i
*1063 clknet_4_10_0_wb_clk_i
*1064 clknet_4_11_0_wb_clk_i
*1065 clknet_4_12_0_wb_clk_i
*1066 clknet_4_13_0_wb_clk_i
*1067 clknet_4_14_0_wb_clk_i
*1068 clknet_4_15_0_wb_clk_i
*1069 clknet_4_1_0_wb_clk_i
*1070 clknet_4_2_0_wb_clk_i
*1071 clknet_4_3_0_wb_clk_i
*1072 clknet_4_4_0_wb_clk_i
*1073 clknet_4_5_0_wb_clk_i
*1074 clknet_4_6_0_wb_clk_i
*1075 clknet_4_7_0_wb_clk_i
*1076 clknet_4_8_0_wb_clk_i
*1077 clknet_4_9_0_wb_clk_i
*1078 generator\.caravel_wb_ack_o
*1079 generator\.caravel_wb_dat_o\[0\]
*1080 generator\.caravel_wb_dat_o\[10\]
*1081 generator\.caravel_wb_dat_o\[11\]
*1082 generator\.caravel_wb_dat_o\[12\]
*1083 generator\.caravel_wb_dat_o\[13\]
*1084 generator\.caravel_wb_dat_o\[14\]
*1085 generator\.caravel_wb_dat_o\[15\]
*1086 generator\.caravel_wb_dat_o\[16\]
*1087 generator\.caravel_wb_dat_o\[17\]
*1088 generator\.caravel_wb_dat_o\[18\]
*1089 generator\.caravel_wb_dat_o\[19\]
*1090 generator\.caravel_wb_dat_o\[1\]
*1091 generator\.caravel_wb_dat_o\[20\]
*1092 generator\.caravel_wb_dat_o\[21\]
*1093 generator\.caravel_wb_dat_o\[22\]
*1094 generator\.caravel_wb_dat_o\[23\]
*1095 generator\.caravel_wb_dat_o\[24\]
*1096 generator\.caravel_wb_dat_o\[2\]
*1097 generator\.caravel_wb_dat_o\[3\]
*1098 generator\.caravel_wb_dat_o\[4\]
*1099 generator\.caravel_wb_dat_o\[5\]
*1100 generator\.caravel_wb_dat_o\[6\]
*1101 generator\.caravel_wb_dat_o\[7\]
*1102 generator\.caravel_wb_dat_o\[8\]
*1103 generator\.caravel_wb_dat_o\[9\]
*1104 generator\.dac\[0\]
*1105 generator\.dac\[1\]
*1106 generator\.dac\[2\]
*1107 generator\.dac\[3\]
*1108 generator\.dac\[4\]
*1109 generator\.dac\[5\]
*1110 generator\.dac\[6\]
*1111 generator\.dac\[7\]
*1112 generator\.dac_data\[0\]
*1113 generator\.dac_data\[10\]
*1114 generator\.dac_data\[11\]
*1115 generator\.dac_data\[12\]
*1116 generator\.dac_data\[13\]
*1117 generator\.dac_data\[14\]
*1118 generator\.dac_data\[15\]
*1119 generator\.dac_data\[16\]
*1120 generator\.dac_data\[17\]
*1121 generator\.dac_data\[18\]
*1122 generator\.dac_data\[19\]
*1123 generator\.dac_data\[1\]
*1124 generator\.dac_data\[20\]
*1125 generator\.dac_data\[21\]
*1126 generator\.dac_data\[22\]
*1127 generator\.dac_data\[23\]
*1128 generator\.dac_data\[24\]
*1129 generator\.dac_data\[25\]
*1130 generator\.dac_data\[26\]
*1131 generator\.dac_data\[27\]
*1132 generator\.dac_data\[28\]
*1133 generator\.dac_data\[29\]
*1134 generator\.dac_data\[2\]
*1135 generator\.dac_data\[30\]
*1136 generator\.dac_data\[31\]
*1137 generator\.dac_data\[3\]
*1138 generator\.dac_data\[4\]
*1139 generator\.dac_data\[5\]
*1140 generator\.dac_data\[6\]
*1141 generator\.dac_data\[7\]
*1142 generator\.dac_data\[8\]
*1143 generator\.dac_data\[9\]
*1144 generator\.dac_state\[0\]
*1145 generator\.dac_state\[1\]
*1146 generator\.dac_state\[2\]
*1147 generator\.dbg_dac_start
*1148 generator\.dbg_ram_addr_zero
*1149 generator\.dbg_ram_wb_stb
*1150 generator\.dbg_state_run
*1151 generator\.fetch_first
*1152 generator\.fetch_next
*1153 generator\.period\[0\]
*1154 generator\.period\[10\]
*1155 generator\.period\[11\]
*1156 generator\.period\[12\]
*1157 generator\.period\[13\]
*1158 generator\.period\[14\]
*1159 generator\.period\[15\]
*1160 generator\.period\[1\]
*1161 generator\.period\[2\]
*1162 generator\.period\[3\]
*1163 generator\.period\[4\]
*1164 generator\.period\[5\]
*1165 generator\.period\[6\]
*1166 generator\.period\[7\]
*1167 generator\.period\[8\]
*1168 generator\.period\[9\]
*1169 generator\.ram_address\[0\]
*1170 generator\.ram_address\[1\]
*1171 generator\.ram_address\[2\]
*1172 generator\.ram_address\[3\]
*1173 generator\.ram_address\[4\]
*1174 generator\.ram_address\[5\]
*1175 generator\.ram_address\[6\]
*1176 generator\.ram_address\[7\]
*1177 generator\.ram_end_addr\[0\]
*1178 generator\.ram_end_addr\[1\]
*1179 generator\.ram_end_addr\[2\]
*1180 generator\.ram_end_addr\[3\]
*1181 generator\.ram_end_addr\[4\]
*1182 generator\.ram_end_addr\[5\]
*1183 generator\.ram_end_addr\[6\]
*1184 generator\.ram_end_addr\[7\]
*1185 generator\.ram_state\[0\]
*1186 generator\.ram_state\[1\]
*1187 generator\.ram_state\[2\]
*1188 generator\.rambus_wb_adr_o\[0\]
*1189 generator\.rambus_wb_adr_o\[1\]
*1190 generator\.rambus_wb_adr_o\[2\]
*1191 generator\.rambus_wb_adr_o\[3\]
*1192 generator\.rambus_wb_adr_o\[4\]
*1193 generator\.rambus_wb_adr_o\[5\]
*1194 generator\.rambus_wb_adr_o\[6\]
*1195 generator\.rambus_wb_adr_o\[7\]
*1196 generator\.rambus_wb_rst_o
*1197 generator\.wait_period\[0\]
*1198 generator\.wait_period\[10\]
*1199 generator\.wait_period\[11\]
*1200 generator\.wait_period\[12\]
*1201 generator\.wait_period\[13\]
*1202 generator\.wait_period\[14\]
*1203 generator\.wait_period\[15\]
*1204 generator\.wait_period\[1\]
*1205 generator\.wait_period\[2\]
*1206 generator\.wait_period\[3\]
*1207 generator\.wait_period\[4\]
*1208 generator\.wait_period\[5\]
*1209 generator\.wait_period\[6\]
*1210 generator\.wait_period\[7\]
*1211 generator\.wait_period\[8\]
*1212 generator\.wait_period\[9\]
*1213 net1
*1214 net10
*1215 net100
*1216 net101
*1217 net102
*1218 net103
*1219 net104
*1220 net105
*1221 net106
*1222 net107
*1223 net108
*1224 net109
*1225 net11
*1226 net110
*1227 net111
*1228 net112
*1229 net113
*1230 net114
*1231 net115
*1232 net116
*1233 net117
*1234 net118
*1235 net119
*1236 net12
*1237 net120
*1238 net121
*1239 net122
*1240 net123
*1241 net124
*1242 net125
*1243 net126
*1244 net127
*1245 net128
*1246 net129
*1247 net13
*1248 net130
*1249 net131
*1250 net132
*1251 net133
*1252 net134
*1253 net135
*1254 net136
*1255 net137
*1256 net138
*1257 net139
*1258 net14
*1259 net140
*1260 net141
*1261 net142
*1262 net143
*1263 net144
*1264 net145
*1265 net146
*1266 net147
*1267 net148
*1268 net149
*1269 net15
*1270 net150
*1271 net151
*1272 net152
*1273 net153
*1274 net154
*1275 net155
*1276 net156
*1277 net157
*1278 net158
*1279 net159
*1280 net16
*1281 net160
*1282 net161
*1283 net162
*1284 net163
*1285 net164
*1286 net165
*1287 net166
*1288 net167
*1289 net168
*1290 net169
*1291 net17
*1292 net170
*1293 net171
*1294 net172
*1295 net173
*1296 net174
*1297 net175
*1298 net176
*1299 net177
*1300 net178
*1301 net179
*1302 net18
*1303 net180
*1304 net181
*1305 net182
*1306 net183
*1307 net184
*1308 net185
*1309 net186
*1310 net187
*1311 net188
*1312 net189
*1313 net19
*1314 net190
*1315 net191
*1316 net192
*1317 net193
*1318 net194
*1319 net195
*1320 net196
*1321 net197
*1322 net198
*1323 net199
*1324 net2
*1325 net20
*1326 net200
*1327 net201
*1328 net202
*1329 net203
*1330 net204
*1331 net21
*1332 net22
*1333 net23
*1334 net24
*1335 net25
*1336 net26
*1337 net27
*1338 net28
*1339 net29
*1340 net3
*1341 net30
*1342 net31
*1343 net32
*1344 net33
*1345 net34
*1346 net35
*1347 net36
*1348 net37
*1349 net38
*1350 net39
*1351 net4
*1352 net40
*1353 net41
*1354 net42
*1355 net43
*1356 net44
*1357 net45
*1358 net46
*1359 net47
*1360 net48
*1361 net49
*1362 net5
*1363 net50
*1364 net51
*1365 net52
*1366 net53
*1367 net54
*1368 net55
*1369 net56
*1370 net57
*1371 net58
*1372 net59
*1373 net6
*1374 net60
*1375 net61
*1376 net62
*1377 net63
*1378 net64
*1379 net65
*1380 net66
*1381 net67
*1382 net68
*1383 net69
*1384 net7
*1385 net70
*1386 net71
*1387 net72
*1388 net73
*1389 net74
*1390 net75
*1391 net76
*1392 net77
*1393 net78
*1394 net79
*1395 net8
*1396 net80
*1397 net81
*1398 net82
*1399 net83
*1400 net84
*1401 net85
*1402 net86
*1403 net87
*1404 net88
*1405 net89
*1406 net9
*1407 net90
*1408 net91
*1409 net92
*1410 net93
*1411 net94
*1412 net95
*1413 net96
*1414 net97
*1415 net98
*1416 net99
*1417 ANTENNA_0
*1418 ANTENNA_1
*1419 ANTENNA_2
*1420 ANTENNA_3
*1421 ANTENNA_4
*1422 ANTENNA_5
*1423 ANTENNA_6
*1424 ANTENNA_7
*1425 FILLER_0_105
*1426 FILLER_0_111
*1427 FILLER_0_113
*1428 FILLER_0_121
*1429 FILLER_0_127
*1430 FILLER_0_134
*1431 FILLER_0_141
*1432 FILLER_0_149
*1433 FILLER_0_161
*1434 FILLER_0_167
*1435 FILLER_0_169
*1436 FILLER_0_177
*1437 FILLER_0_182
*1438 FILLER_0_194
*1439 FILLER_0_197
*1440 FILLER_0_205
*1441 FILLER_0_210
*1442 FILLER_0_222
*1443 FILLER_0_24
*1444 FILLER_0_246
*1445 FILLER_0_253
*1446 FILLER_0_265
*1447 FILLER_0_272
*1448 FILLER_0_281
*1449 FILLER_0_286
*1450 FILLER_0_300
*1451 FILLER_0_309
*1452 FILLER_0_32
*1453 FILLER_0_332
*1454 FILLER_0_337
*1455 FILLER_0_345
*1456 FILLER_0_350
*1457 FILLER_0_360
*1458 FILLER_0_365
*1459 FILLER_0_371
*1460 FILLER_0_379
*1461 FILLER_0_384
*1462 FILLER_0_393
*1463 FILLER_0_405
*1464 FILLER_0_416
*1465 FILLER_0_42
*1466 FILLER_0_421
*1467 FILLER_0_433
*1468 FILLER_0_445
*1469 FILLER_0_449
*1470 FILLER_0_457
*1471 FILLER_0_462
*1472 FILLER_0_472
*1473 FILLER_0_477
*1474 FILLER_0_500
*1475 FILLER_0_505
*1476 FILLER_0_512
*1477 FILLER_0_54
*1478 FILLER_0_78
*1479 FILLER_0_95
*1480 FILLER_10_109
*1481 FILLER_10_121
*1482 FILLER_10_13
*1483 FILLER_10_133
*1484 FILLER_10_139
*1485 FILLER_10_141
*1486 FILLER_10_153
*1487 FILLER_10_165
*1488 FILLER_10_177
*1489 FILLER_10_192
*1490 FILLER_10_197
*1491 FILLER_10_204
*1492 FILLER_10_212
*1493 FILLER_10_223
*1494 FILLER_10_232
*1495 FILLER_10_248
*1496 FILLER_10_25
*1497 FILLER_10_258
*1498 FILLER_10_270
*1499 FILLER_10_276
*1500 FILLER_10_285
*1501 FILLER_10_29
*1502 FILLER_10_294
*1503 FILLER_10_3
*1504 FILLER_10_306
*1505 FILLER_10_309
*1506 FILLER_10_326
*1507 FILLER_10_335
*1508 FILLER_10_347
*1509 FILLER_10_359
*1510 FILLER_10_363
*1511 FILLER_10_365
*1512 FILLER_10_377
*1513 FILLER_10_389
*1514 FILLER_10_401
*1515 FILLER_10_41
*1516 FILLER_10_413
*1517 FILLER_10_419
*1518 FILLER_10_421
*1519 FILLER_10_433
*1520 FILLER_10_445
*1521 FILLER_10_457
*1522 FILLER_10_469
*1523 FILLER_10_475
*1524 FILLER_10_477
*1525 FILLER_10_489
*1526 FILLER_10_501
*1527 FILLER_10_513
*1528 FILLER_10_53
*1529 FILLER_10_65
*1530 FILLER_10_77
*1531 FILLER_10_83
*1532 FILLER_10_85
*1533 FILLER_10_97
*1534 FILLER_11_105
*1535 FILLER_11_111
*1536 FILLER_11_113
*1537 FILLER_11_125
*1538 FILLER_11_13
*1539 FILLER_11_137
*1540 FILLER_11_149
*1541 FILLER_11_161
*1542 FILLER_11_167
*1543 FILLER_11_169
*1544 FILLER_11_181
*1545 FILLER_11_210
*1546 FILLER_11_222
*1547 FILLER_11_225
*1548 FILLER_11_237
*1549 FILLER_11_249
*1550 FILLER_11_25
*1551 FILLER_11_261
*1552 FILLER_11_273
*1553 FILLER_11_279
*1554 FILLER_11_281
*1555 FILLER_11_293
*1556 FILLER_11_3
*1557 FILLER_11_312
*1558 FILLER_11_324
*1559 FILLER_11_337
*1560 FILLER_11_349
*1561 FILLER_11_361
*1562 FILLER_11_37
*1563 FILLER_11_373
*1564 FILLER_11_385
*1565 FILLER_11_391
*1566 FILLER_11_393
*1567 FILLER_11_405
*1568 FILLER_11_417
*1569 FILLER_11_429
*1570 FILLER_11_441
*1571 FILLER_11_447
*1572 FILLER_11_449
*1573 FILLER_11_461
*1574 FILLER_11_473
*1575 FILLER_11_485
*1576 FILLER_11_49
*1577 FILLER_11_497
*1578 FILLER_11_503
*1579 FILLER_11_505
*1580 FILLER_11_512
*1581 FILLER_11_55
*1582 FILLER_11_57
*1583 FILLER_11_69
*1584 FILLER_11_81
*1585 FILLER_11_93
*1586 FILLER_12_109
*1587 FILLER_12_121
*1588 FILLER_12_133
*1589 FILLER_12_139
*1590 FILLER_12_141
*1591 FILLER_12_15
*1592 FILLER_12_153
*1593 FILLER_12_165
*1594 FILLER_12_173
*1595 FILLER_12_192
*1596 FILLER_12_197
*1597 FILLER_12_208
*1598 FILLER_12_228
*1599 FILLER_12_240
*1600 FILLER_12_253
*1601 FILLER_12_265
*1602 FILLER_12_269
*1603 FILLER_12_27
*1604 FILLER_12_286
*1605 FILLER_12_29
*1606 FILLER_12_3
*1607 FILLER_12_303
*1608 FILLER_12_307
*1609 FILLER_12_309
*1610 FILLER_12_321
*1611 FILLER_12_333
*1612 FILLER_12_345
*1613 FILLER_12_357
*1614 FILLER_12_363
*1615 FILLER_12_365
*1616 FILLER_12_377
*1617 FILLER_12_389
*1618 FILLER_12_401
*1619 FILLER_12_41
*1620 FILLER_12_413
*1621 FILLER_12_419
*1622 FILLER_12_421
*1623 FILLER_12_433
*1624 FILLER_12_445
*1625 FILLER_12_457
*1626 FILLER_12_469
*1627 FILLER_12_475
*1628 FILLER_12_477
*1629 FILLER_12_489
*1630 FILLER_12_501
*1631 FILLER_12_507
*1632 FILLER_12_512
*1633 FILLER_12_53
*1634 FILLER_12_65
*1635 FILLER_12_77
*1636 FILLER_12_83
*1637 FILLER_12_85
*1638 FILLER_12_97
*1639 FILLER_13_105
*1640 FILLER_13_111
*1641 FILLER_13_113
*1642 FILLER_13_125
*1643 FILLER_13_137
*1644 FILLER_13_149
*1645 FILLER_13_15
*1646 FILLER_13_161
*1647 FILLER_13_167
*1648 FILLER_13_169
*1649 FILLER_13_181
*1650 FILLER_13_198
*1651 FILLER_13_215
*1652 FILLER_13_223
*1653 FILLER_13_225
*1654 FILLER_13_237
*1655 FILLER_13_255
*1656 FILLER_13_27
*1657 FILLER_13_276
*1658 FILLER_13_281
*1659 FILLER_13_289
*1660 FILLER_13_3
*1661 FILLER_13_301
*1662 FILLER_13_307
*1663 FILLER_13_311
*1664 FILLER_13_323
*1665 FILLER_13_335
*1666 FILLER_13_337
*1667 FILLER_13_349
*1668 FILLER_13_361
*1669 FILLER_13_373
*1670 FILLER_13_385
*1671 FILLER_13_39
*1672 FILLER_13_391
*1673 FILLER_13_393
*1674 FILLER_13_405
*1675 FILLER_13_417
*1676 FILLER_13_429
*1677 FILLER_13_441
*1678 FILLER_13_447
*1679 FILLER_13_449
*1680 FILLER_13_461
*1681 FILLER_13_473
*1682 FILLER_13_485
*1683 FILLER_13_497
*1684 FILLER_13_503
*1685 FILLER_13_505
*1686 FILLER_13_51
*1687 FILLER_13_513
*1688 FILLER_13_55
*1689 FILLER_13_57
*1690 FILLER_13_69
*1691 FILLER_13_81
*1692 FILLER_13_93
*1693 FILLER_14_109
*1694 FILLER_14_121
*1695 FILLER_14_133
*1696 FILLER_14_139
*1697 FILLER_14_141
*1698 FILLER_14_153
*1699 FILLER_14_165
*1700 FILLER_14_177
*1701 FILLER_14_189
*1702 FILLER_14_195
*1703 FILLER_14_202
*1704 FILLER_14_216
*1705 FILLER_14_228
*1706 FILLER_14_236
*1707 FILLER_14_24
*1708 FILLER_14_248
*1709 FILLER_14_262
*1710 FILLER_14_270
*1711 FILLER_14_280
*1712 FILLER_14_29
*1713 FILLER_14_292
*1714 FILLER_14_303
*1715 FILLER_14_307
*1716 FILLER_14_314
*1717 FILLER_14_336
*1718 FILLER_14_348
*1719 FILLER_14_360
*1720 FILLER_14_365
*1721 FILLER_14_377
*1722 FILLER_14_389
*1723 FILLER_14_401
*1724 FILLER_14_41
*1725 FILLER_14_413
*1726 FILLER_14_419
*1727 FILLER_14_421
*1728 FILLER_14_433
*1729 FILLER_14_445
*1730 FILLER_14_457
*1731 FILLER_14_469
*1732 FILLER_14_475
*1733 FILLER_14_477
*1734 FILLER_14_489
*1735 FILLER_14_501
*1736 FILLER_14_513
*1737 FILLER_14_53
*1738 FILLER_14_65
*1739 FILLER_14_77
*1740 FILLER_14_83
*1741 FILLER_14_85
*1742 FILLER_14_97
*1743 FILLER_15_105
*1744 FILLER_15_111
*1745 FILLER_15_113
*1746 FILLER_15_125
*1747 FILLER_15_13
*1748 FILLER_15_137
*1749 FILLER_15_149
*1750 FILLER_15_161
*1751 FILLER_15_167
*1752 FILLER_15_169
*1753 FILLER_15_181
*1754 FILLER_15_193
*1755 FILLER_15_20
*1756 FILLER_15_203
*1757 FILLER_15_215
*1758 FILLER_15_223
*1759 FILLER_15_225
*1760 FILLER_15_237
*1761 FILLER_15_255
*1762 FILLER_15_267
*1763 FILLER_15_27
*1764 FILLER_15_271
*1765 FILLER_15_276
*1766 FILLER_15_285
*1767 FILLER_15_297
*1768 FILLER_15_307
*1769 FILLER_15_320
*1770 FILLER_15_328
*1771 FILLER_15_337
*1772 FILLER_15_349
*1773 FILLER_15_361
*1774 FILLER_15_373
*1775 FILLER_15_385
*1776 FILLER_15_39
*1777 FILLER_15_391
*1778 FILLER_15_393
*1779 FILLER_15_405
*1780 FILLER_15_417
*1781 FILLER_15_429
*1782 FILLER_15_441